
#======================================================================
            
# CRYSTAL DATA

#----------------------------------------------------------------------

data_magnetic_model_1
            
_chemical_name_common                  prueba                                                                         

_cell_length_a 			16.100473
_cell_length_b 			16.100473
_cell_length_c 			32.200946
_cell_angle_alpha 			90.0
_cell_angle_beta 			90.0
_cell_angle_gamma 			90.0

loop_
 _space_group_symop_operation_xyz			
'x, y, z'

# Atom positions 

loop_
   _atom_site_label
_atom_site_occupancy
_atom_site_fract_x
_atom_site_fract_y
_atom_site_fract_z
_atom_site_adp_type
_atom_site_B_iso_or_equiv
_atom_site_type_symbol
Fe1	 1.	0.5	0.5	0.25	Biso 	1 	Fe 
Fe2	 1.	0.5	0.5	0.75	Biso 	1 	Fe 
Fe3	 1.	0.5	0.25	0.125	Biso 	1 	Fe 
Fe4	 1.	0.5	0.25	0.625	Biso 	1 	Fe 
Fe5	 1.	0.0	0.0	0.25	Biso 	1 	Fe 
Fe6	 1.	0.0	0.0	0.75	Biso 	1 	Fe 
Fe7	 1.	-0.0	0.75	0.125	Biso 	1 	Fe 
Fe8	 1.	-0.0	0.75	0.625	Biso 	1 	Fe 
Fe9	 1.	0.0	0.5	0.0	Biso 	1 	Fe 
Fe10	 1.	0.0	0.5	0.5	Biso 	1 	Fe 
Fe11	 1.	0.0	0.25	0.375	Biso 	1 	Fe 
Fe12	 1.	0.0	0.25	0.875	Biso 	1 	Fe 
Fe13	 1.	0.5	0.0	0.0	Biso 	1 	Fe 
Fe14	 1.	0.5	0.0	0.5	Biso 	1 	Fe 
Fe15	 1.	0.5	0.75	0.375	Biso 	1 	Fe 
Fe16	 1.	0.5	0.75	0.875	Biso 	1 	Fe 
Fe17	 1.	0.75	0.75	0.25	Biso 	1 	Fe 
Fe18	 1.	0.75	0.75	0.75	Biso 	1 	Fe 
Fe19	 1.	0.25	0.5	0.125	Biso 	1 	Fe 
Fe20	 1.	0.25	0.5	0.625	Biso 	1 	Fe 
Fe21	 1.	0.25	0.25	0.25	Biso 	1 	Fe 
Fe22	 1.	0.25	0.25	0.75	Biso 	1 	Fe 
Fe23	 1.	0.75	0.0	0.125	Biso 	1 	Fe 
Fe24	 1.	0.75	0.0	0.625	Biso 	1 	Fe 
Fe25	 1.	0.25	0.75	0.0	Biso 	1 	Fe 
Fe26	 1.	0.25	0.75	0.5	Biso 	1 	Fe 
Fe27	 1.	0.75	0.5	0.375	Biso 	1 	Fe 
Fe28	 1.	0.75	0.5	0.875	Biso 	1 	Fe 
Fe29	 1.	0.75	0.25	0.0	Biso 	1 	Fe 
Fe30	 1.	0.75	0.25	0.5	Biso 	1 	Fe 
Fe31	 1.	0.25	0.0	0.375	Biso 	1 	Fe 
Fe32	 1.	0.25	0.0	0.875	Biso 	1 	Fe 
   
# Bonds  
loop_
_geom_bond_atom_site_label_1
_geom_bond_atom_site_label_2
_geom_bond_distance
_geom_bond_label
Fe1	Fe3	5.692	J1
Fe1	Fe15	5.692	J1
Fe1	Fe17	5.692	J1
Fe1	Fe19	5.692	J1
Fe1	Fe21	5.692	J1
Fe1	Fe27	5.692	J1
Fe2	Fe4	5.692	J1
Fe2	Fe16	5.692	J1
Fe2	Fe18	5.692	J1
Fe2	Fe20	5.692	J1
Fe2	Fe22	5.692	J1
Fe2	Fe28	5.692	J1
Fe3	Fe13	5.692	J1
Fe3	Fe19	5.692	J1
Fe3	Fe21	5.692	J1
Fe3	Fe23	5.692	J1
Fe3	Fe29	5.692	J1
Fe4	Fe14	5.692	J1
Fe4	Fe20	5.692	J1
Fe4	Fe22	5.692	J1
Fe4	Fe24	5.692	J1
Fe4	Fe30	5.692	J1
Fe5	Fe17	5.692	J1
Fe5	Fe23	5.692	J1
Fe5	Fe7	5.692	J1
Fe5	Fe11	5.692	J1
Fe5	Fe21	5.692	J1
Fe5	Fe31	5.692	J1
Fe6	Fe18	5.692	J1
Fe6	Fe24	5.692	J1
Fe6	Fe8	5.692	J1
Fe6	Fe12	5.692	J1
Fe6	Fe22	5.692	J1
Fe6	Fe32	5.692	J1
Fe7	Fe17	5.692	J1
Fe7	Fe23	5.692	J1
Fe7	Fe9	5.692	J1
Fe7	Fe19	5.692	J1
Fe7	Fe25	5.692	J1
Fe8	Fe18	5.692	J1
Fe8	Fe24	5.692	J1
Fe8	Fe10	5.692	J1
Fe8	Fe20	5.692	J1
Fe8	Fe26	5.692	J1
Fe9	Fe28	5.692	J1
Fe9	Fe29	5.692	J1
Fe9	Fe12	5.692	J1
Fe9	Fe19	5.692	J1
Fe9	Fe25	5.692	J1
Fe10	Fe27	5.692	J1
Fe10	Fe30	5.692	J1
Fe10	Fe11	5.692	J1
Fe10	Fe20	5.692	J1
Fe10	Fe26	5.692	J1
Fe11	Fe27	5.692	J1
Fe11	Fe30	5.692	J1
Fe11	Fe21	5.692	J1
Fe11	Fe31	5.692	J1
Fe12	Fe28	5.692	J1
Fe12	Fe29	5.692	J1
Fe12	Fe22	5.692	J1
Fe12	Fe32	5.692	J1
Fe13	Fe16	5.692	J1
Fe13	Fe25	5.692	J1
Fe13	Fe32	5.692	J1
Fe13	Fe23	5.692	J1
Fe13	Fe29	5.692	J1
Fe14	Fe15	5.692	J1
Fe14	Fe26	5.692	J1
Fe14	Fe24	5.692	J1
Fe14	Fe30	5.692	J1
Fe14	Fe31	5.692	J1
Fe15	Fe17	5.692	J1
Fe15	Fe26	5.692	J1
Fe15	Fe27	5.692	J1
Fe15	Fe31	5.692	J1
Fe16	Fe18	5.692	J1
Fe16	Fe28	5.692	J1
Fe16	Fe25	5.692	J1
Fe16	Fe32	5.692	J1
Fe17	Fe27	5.692	J1
Fe17	Fe23	5.692	J1
Fe18	Fe28	5.692	J1
Fe18	Fe24	5.692	J1
Fe19	Fe21	5.692	J1
Fe19	Fe25	5.692	J1
Fe20	Fe22	5.692	J1
Fe20	Fe26	5.692	J1
Fe21	Fe31	5.692	J1
Fe22	Fe32	5.692	J1
Fe23	Fe29	5.692	J1
Fe24	Fe30	5.692	J1
Fe25	Fe32	5.692	J1
Fe26	Fe31	5.692	J1
Fe27	Fe30	5.692	J1
Fe28	Fe29	5.692	J1
Fe1	Fe7	9.859	J2
Fe1	Fe11	9.859	J2
Fe1	Fe23	9.859	J2
Fe1	Fe25	9.859	J2
Fe1	Fe26	9.859	J2
Fe1	Fe29	9.859	J2
Fe1	Fe30	9.859	J2
Fe1	Fe31	9.859	J2
Fe1	Fe23	9.859	J2
Fe1	Fe31	9.859	J2
Fe1	Fe7	9.859	J2
Fe1	Fe11	9.859	J2
Fe2	Fe8	9.859	J2
Fe2	Fe12	9.859	J2
Fe2	Fe24	9.859	J2
Fe2	Fe26	9.859	J2
Fe2	Fe30	9.859	J2
Fe2	Fe32	9.859	J2
Fe2	Fe25	9.859	J2
Fe2	Fe29	9.859	J2
Fe2	Fe24	9.859	J2
Fe2	Fe32	9.859	J2
Fe2	Fe8	9.859	J2
Fe2	Fe12	9.859	J2
Fe3	Fe17	9.859	J2
Fe3	Fe25	9.859	J2
Fe3	Fe28	9.859	J2
Fe3	Fe32	9.859	J2
Fe3	Fe5	9.859	J2
Fe3	Fe9	9.859	J2
Fe3	Fe17	9.859	J2
Fe3	Fe25	9.859	J2
Fe3	Fe27	9.859	J2
Fe3	Fe31	9.859	J2
Fe3	Fe5	9.859	J2
Fe3	Fe9	9.859	J2
Fe4	Fe18	9.859	J2
Fe4	Fe26	9.859	J2
Fe4	Fe6	9.859	J2
Fe4	Fe10	9.859	J2
Fe4	Fe18	9.859	J2
Fe4	Fe26	9.859	J2
Fe4	Fe27	9.859	J2
Fe4	Fe28	9.859	J2
Fe4	Fe31	9.859	J2
Fe4	Fe32	9.859	J2
Fe4	Fe6	9.859	J2
Fe4	Fe10	9.859	J2
Fe5	Fe15	9.859	J2
Fe5	Fe27	9.859	J2
Fe5	Fe27	9.859	J2
Fe5	Fe29	9.859	J2
Fe5	Fe30	9.859	J2
Fe5	Fe15	9.859	J2
Fe5	Fe19	9.859	J2
Fe5	Fe25	9.859	J2
Fe5	Fe26	9.859	J2
Fe5	Fe19	9.859	J2
Fe6	Fe16	9.859	J2
Fe6	Fe28	9.859	J2
Fe6	Fe28	9.859	J2
Fe6	Fe30	9.859	J2
Fe6	Fe29	9.859	J2
Fe6	Fe16	9.859	J2
Fe6	Fe20	9.859	J2
Fe6	Fe26	9.859	J2
Fe6	Fe25	9.859	J2
Fe6	Fe20	9.859	J2
Fe7	Fe28	9.859	J2
Fe7	Fe27	9.859	J2
Fe7	Fe29	9.859	J2
Fe7	Fe13	9.859	J2
Fe7	Fe29	9.859	J2
Fe7	Fe21	9.859	J2
Fe7	Fe32	9.859	J2
Fe7	Fe13	9.859	J2
Fe7	Fe21	9.859	J2
Fe7	Fe31	9.859	J2
Fe8	Fe27	9.859	J2
Fe8	Fe28	9.859	J2
Fe8	Fe30	9.859	J2
Fe8	Fe14	9.859	J2
Fe8	Fe30	9.859	J2
Fe8	Fe22	9.859	J2
Fe8	Fe14	9.859	J2
Fe8	Fe22	9.859	J2
Fe8	Fe31	9.859	J2
Fe8	Fe32	9.859	J2
Fe9	Fe16	9.859	J2
Fe9	Fe18	9.859	J2
Fe9	Fe17	9.859	J2
Fe9	Fe23	9.859	J2
Fe9	Fe23	9.859	J2
Fe9	Fe16	9.859	J2
Fe9	Fe22	9.859	J2
Fe9	Fe32	9.859	J2
Fe9	Fe21	9.859	J2
Fe9	Fe32	9.859	J2
Fe10	Fe15	9.859	J2
Fe10	Fe17	9.859	J2
Fe10	Fe18	9.859	J2
Fe10	Fe24	9.859	J2
Fe10	Fe24	9.859	J2
Fe10	Fe15	9.859	J2
Fe10	Fe21	9.859	J2
Fe10	Fe22	9.859	J2
Fe10	Fe31	9.859	J2
Fe10	Fe31	9.859	J2
Fe11	Fe17	9.859	J2
Fe11	Fe14	9.859	J2
Fe11	Fe17	9.859	J2
Fe11	Fe23	9.859	J2
Fe11	Fe24	9.859	J2
Fe11	Fe26	9.859	J2
Fe11	Fe14	9.859	J2
Fe11	Fe19	9.859	J2
Fe11	Fe20	9.859	J2
Fe11	Fe26	9.859	J2
Fe12	Fe18	9.859	J2
Fe12	Fe18	9.859	J2
Fe12	Fe24	9.859	J2
Fe12	Fe13	9.859	J2
Fe12	Fe23	9.859	J2
Fe12	Fe25	9.859	J2
Fe12	Fe20	9.859	J2
Fe12	Fe13	9.859	J2
Fe12	Fe19	9.859	J2
Fe12	Fe25	9.859	J2
Fe13	Fe18	9.859	J2
Fe13	Fe28	9.859	J2
Fe13	Fe17	9.859	J2
Fe13	Fe19	9.859	J2
Fe13	Fe22	9.859	J2
Fe13	Fe28	9.859	J2
Fe13	Fe19	9.859	J2
Fe13	Fe21	9.859	J2
Fe14	Fe17	9.859	J2
Fe14	Fe18	9.859	J2
Fe14	Fe20	9.859	J2
Fe14	Fe27	9.859	J2
Fe14	Fe20	9.859	J2
Fe14	Fe21	9.859	J2
Fe14	Fe22	9.859	J2
Fe14	Fe27	9.859	J2
Fe15	Fe19	9.859	J2
Fe15	Fe20	9.859	J2
Fe15	Fe21	9.859	J2
Fe15	Fe30	9.859	J2
Fe15	Fe21	9.859	J2
Fe15	Fe23	9.859	J2
Fe15	Fe24	9.859	J2
Fe15	Fe30	9.859	J2
Fe16	Fe20	9.859	J2
Fe16	Fe22	9.859	J2
Fe16	Fe19	9.859	J2
Fe16	Fe29	9.859	J2
Fe16	Fe22	9.859	J2
Fe16	Fe24	9.859	J2
Fe16	Fe23	9.859	J2
Fe16	Fe29	9.859	J2
Fe17	Fe19	9.859	J2
Fe17	Fe31	9.859	J2
Fe17	Fe19	9.859	J2
Fe17	Fe31	9.859	J2
Fe18	Fe20	9.859	J2
Fe18	Fe32	9.859	J2
Fe18	Fe20	9.859	J2
Fe18	Fe32	9.859	J2
Fe19	Fe29	9.859	J2
Fe19	Fe29	9.859	J2
Fe20	Fe30	9.859	J2
Fe20	Fe30	9.859	J2
Fe21	Fe23	9.859	J2
Fe21	Fe27	9.859	J2
Fe21	Fe23	9.859	J2
Fe21	Fe27	9.859	J2
Fe22	Fe24	9.859	J2
Fe22	Fe28	9.859	J2
Fe22	Fe24	9.859	J2
Fe22	Fe28	9.859	J2
Fe23	Fe25	9.859	J2
Fe23	Fe25	9.859	J2
Fe24	Fe26	9.859	J2
Fe24	Fe26	9.859	J2
Fe25	Fe28	9.859	J2
Fe25	Fe28	9.859	J2
Fe26	Fe27	9.859	J2
Fe26	Fe27	9.859	J2
Fe29	Fe32	9.859	J2
Fe29	Fe32	9.859	J2
Fe30	Fe31	9.859	J2
Fe30	Fe31	9.859	J2
Fe1	Fe5	11.385	J3
Fe1	Fe9	11.385	J3
Fe1	Fe10	11.385	J3
Fe1	Fe13	11.385	J3
Fe1	Fe14	11.385	J3
Fe1	Fe5	11.385	J3
Fe1	Fe13	11.385	J3
Fe1	Fe14	11.385	J3
Fe1	Fe5	11.385	J3
Fe1	Fe9	11.385	J3
Fe1	Fe10	11.385	J3
Fe1	Fe5	11.385	J3
Fe2	Fe6	11.385	J3
Fe2	Fe10	11.385	J3
Fe2	Fe14	11.385	J3
Fe2	Fe9	11.385	J3
Fe2	Fe13	11.385	J3
Fe2	Fe6	11.385	J3
Fe2	Fe14	11.385	J3
Fe2	Fe13	11.385	J3
Fe2	Fe6	11.385	J3
Fe2	Fe10	11.385	J3
Fe2	Fe9	11.385	J3
Fe2	Fe6	11.385	J3
Fe3	Fe16	11.385	J3
Fe3	Fe7	11.385	J3
Fe3	Fe15	11.385	J3
Fe3	Fe12	11.385	J3
Fe3	Fe16	11.385	J3
Fe3	Fe7	11.385	J3
Fe3	Fe11	11.385	J3
Fe3	Fe15	11.385	J3
Fe3	Fe7	11.385	J3
Fe3	Fe12	11.385	J3
Fe3	Fe7	11.385	J3
Fe3	Fe11	11.385	J3
Fe4	Fe8	11.385	J3
Fe4	Fe15	11.385	J3
Fe4	Fe16	11.385	J3
Fe4	Fe8	11.385	J3
Fe4	Fe11	11.385	J3
Fe4	Fe12	11.385	J3
Fe4	Fe15	11.385	J3
Fe4	Fe16	11.385	J3
Fe4	Fe8	11.385	J3
Fe4	Fe8	11.385	J3
Fe4	Fe11	11.385	J3
Fe4	Fe12	11.385	J3
Fe5	Fe13	11.385	J3
Fe5	Fe14	11.385	J3
Fe5	Fe9	11.385	J3
Fe5	Fe10	11.385	J3
Fe5	Fe9	11.385	J3
Fe5	Fe10	11.385	J3
Fe5	Fe13	11.385	J3
Fe5	Fe14	11.385	J3
Fe6	Fe14	11.385	J3
Fe6	Fe13	11.385	J3
Fe6	Fe10	11.385	J3
Fe6	Fe9	11.385	J3
Fe6	Fe10	11.385	J3
Fe6	Fe14	11.385	J3
Fe6	Fe9	11.385	J3
Fe6	Fe13	11.385	J3
Fe7	Fe16	11.385	J3
Fe7	Fe15	11.385	J3
Fe7	Fe12	11.385	J3
Fe7	Fe16	11.385	J3
Fe7	Fe11	11.385	J3
Fe7	Fe15	11.385	J3
Fe7	Fe12	11.385	J3
Fe7	Fe11	11.385	J3
Fe8	Fe15	11.385	J3
Fe8	Fe16	11.385	J3
Fe8	Fe11	11.385	J3
Fe8	Fe12	11.385	J3
Fe8	Fe15	11.385	J3
Fe8	Fe16	11.385	J3
Fe8	Fe11	11.385	J3
Fe8	Fe12	11.385	J3
Fe9	Fe13	11.385	J3
Fe9	Fe13	11.385	J3
Fe9	Fe13	11.385	J3
Fe9	Fe13	11.385	J3
Fe10	Fe14	11.385	J3
Fe10	Fe14	11.385	J3
Fe10	Fe14	11.385	J3
Fe10	Fe14	11.385	J3
Fe11	Fe15	11.385	J3
Fe11	Fe15	11.385	J3
Fe11	Fe15	11.385	J3
Fe11	Fe15	11.385	J3
Fe12	Fe16	11.385	J3
Fe12	Fe16	11.385	J3
Fe12	Fe16	11.385	J3
Fe12	Fe16	11.385	J3
Fe17	Fe21	11.385	J3
Fe17	Fe25	11.385	J3
Fe17	Fe26	11.385	J3
Fe17	Fe29	11.385	J3
Fe17	Fe30	11.385	J3
Fe17	Fe21	11.385	J3
Fe17	Fe29	11.385	J3
Fe17	Fe30	11.385	J3
Fe17	Fe21	11.385	J3
Fe17	Fe25	11.385	J3
Fe17	Fe26	11.385	J3
Fe17	Fe21	11.385	J3
Fe18	Fe22	11.385	J3
Fe18	Fe26	11.385	J3
Fe18	Fe30	11.385	J3
Fe18	Fe25	11.385	J3
Fe18	Fe29	11.385	J3
Fe18	Fe22	11.385	J3
Fe18	Fe30	11.385	J3
Fe18	Fe29	11.385	J3
Fe18	Fe22	11.385	J3
Fe18	Fe26	11.385	J3
Fe18	Fe25	11.385	J3
Fe18	Fe22	11.385	J3
Fe19	Fe28	11.385	J3
Fe19	Fe23	11.385	J3
Fe19	Fe27	11.385	J3
Fe19	Fe23	11.385	J3
Fe19	Fe28	11.385	J3
Fe19	Fe32	11.385	J3
Fe19	Fe23	11.385	J3
Fe19	Fe27	11.385	J3
Fe19	Fe31	11.385	J3
Fe19	Fe32	11.385	J3
Fe19	Fe23	11.385	J3
Fe19	Fe31	11.385	J3
Fe20	Fe24	11.385	J3
Fe20	Fe27	11.385	J3
Fe20	Fe28	11.385	J3
Fe20	Fe24	11.385	J3
Fe20	Fe24	11.385	J3
Fe20	Fe27	11.385	J3
Fe20	Fe28	11.385	J3
Fe20	Fe31	11.385	J3
Fe20	Fe32	11.385	J3
Fe20	Fe24	11.385	J3
Fe20	Fe31	11.385	J3
Fe20	Fe32	11.385	J3
Fe21	Fe29	11.385	J3
Fe21	Fe30	11.385	J3
Fe21	Fe25	11.385	J3
Fe21	Fe26	11.385	J3
Fe21	Fe25	11.385	J3
Fe21	Fe26	11.385	J3
Fe21	Fe29	11.385	J3
Fe21	Fe30	11.385	J3
Fe22	Fe30	11.385	J3
Fe22	Fe29	11.385	J3
Fe22	Fe26	11.385	J3
Fe22	Fe25	11.385	J3
Fe22	Fe26	11.385	J3
Fe22	Fe30	11.385	J3
Fe22	Fe25	11.385	J3
Fe22	Fe29	11.385	J3
Fe23	Fe28	11.385	J3
Fe23	Fe27	11.385	J3
Fe23	Fe28	11.385	J3
Fe23	Fe32	11.385	J3
Fe23	Fe27	11.385	J3
Fe23	Fe31	11.385	J3
Fe23	Fe32	11.385	J3
Fe23	Fe31	11.385	J3
Fe24	Fe27	11.385	J3
Fe24	Fe28	11.385	J3
Fe24	Fe27	11.385	J3
Fe24	Fe28	11.385	J3
Fe24	Fe31	11.385	J3
Fe24	Fe32	11.385	J3
Fe24	Fe31	11.385	J3
Fe24	Fe32	11.385	J3
Fe25	Fe29	11.385	J3
Fe25	Fe29	11.385	J3
Fe25	Fe29	11.385	J3
Fe25	Fe29	11.385	J3
Fe26	Fe30	11.385	J3
Fe26	Fe30	11.385	J3
Fe26	Fe30	11.385	J3
Fe26	Fe30	11.385	J3
Fe27	Fe31	11.385	J3
Fe27	Fe31	11.385	J3
Fe27	Fe31	11.385	J3
Fe27	Fe31	11.385	J3
Fe28	Fe32	11.385	J3
Fe28	Fe32	11.385	J3
Fe28	Fe32	11.385	J3
Fe28	Fe32	11.385	J3
Fe1	Fe17	12.729	J4
Fe1	Fe27	12.729	J4
Fe1	Fe15	12.729	J4
Fe1	Fe17	12.729	J4
Fe1	Fe16	12.729	J4
Fe1	Fe28	12.729	J4
Fe1	Fe4	12.729	J4
Fe1	Fe20	12.729	J4
Fe1	Fe3	12.729	J4
Fe1	Fe21	12.729	J4
Fe1	Fe19	12.729	J4
Fe1	Fe21	12.729	J4
Fe2	Fe18	12.729	J4
Fe2	Fe28	12.729	J4
Fe2	Fe16	12.729	J4
Fe2	Fe18	12.729	J4
Fe2	Fe15	12.729	J4
Fe2	Fe27	12.729	J4
Fe2	Fe3	12.729	J4
Fe2	Fe19	12.729	J4
Fe2	Fe4	12.729	J4
Fe2	Fe22	12.729	J4
Fe2	Fe20	12.729	J4
Fe2	Fe22	12.729	J4
Fe3	Fe23	12.729	J4
Fe3	Fe29	12.729	J4
Fe3	Fe19	12.729	J4
Fe3	Fe22	12.729	J4
Fe3	Fe14	12.729	J4
Fe3	Fe30	12.729	J4
Fe3	Fe13	12.729	J4
Fe3	Fe23	12.729	J4
Fe3	Fe19	12.729	J4
Fe3	Fe21	12.729	J4
Fe4	Fe24	12.729	J4
Fe4	Fe30	12.729	J4
Fe4	Fe20	12.729	J4
Fe4	Fe21	12.729	J4
Fe4	Fe13	12.729	J4
Fe4	Fe29	12.729	J4
Fe4	Fe14	12.729	J4
Fe4	Fe24	12.729	J4
Fe4	Fe20	12.729	J4
Fe4	Fe22	12.729	J4
Fe5	Fe17	12.729	J4
Fe5	Fe21	12.729	J4
Fe5	Fe24	12.729	J4
Fe5	Fe31	12.729	J4
Fe5	Fe8	12.729	J4
Fe5	Fe11	12.729	J4
Fe5	Fe17	12.729	J4
Fe5	Fe21	12.729	J4
Fe5	Fe12	12.729	J4
Fe5	Fe32	12.729	J4
Fe5	Fe7	12.729	J4
Fe5	Fe23	12.729	J4
Fe6	Fe18	12.729	J4
Fe6	Fe22	12.729	J4
Fe6	Fe32	12.729	J4
Fe6	Fe23	12.729	J4
Fe6	Fe12	12.729	J4
Fe6	Fe18	12.729	J4
Fe6	Fe22	12.729	J4
Fe6	Fe7	12.729	J4
Fe6	Fe8	12.729	J4
Fe6	Fe11	12.729	J4
Fe6	Fe24	12.729	J4
Fe6	Fe31	12.729	J4
Fe7	Fe18	12.729	J4
Fe7	Fe19	12.729	J4
Fe7	Fe23	12.729	J4
Fe7	Fe25	12.729	J4
Fe7	Fe10	12.729	J4
Fe7	Fe17	12.729	J4
Fe7	Fe26	12.729	J4
Fe7	Fe9	12.729	J4
Fe7	Fe19	12.729	J4
Fe7	Fe23	12.729	J4
Fe8	Fe17	12.729	J4
Fe8	Fe20	12.729	J4
Fe8	Fe24	12.729	J4
Fe8	Fe26	12.729	J4
Fe8	Fe18	12.729	J4
Fe8	Fe9	12.729	J4
Fe8	Fe25	12.729	J4
Fe8	Fe10	12.729	J4
Fe8	Fe20	12.729	J4
Fe8	Fe24	12.729	J4
Fe9	Fe19	12.729	J4
Fe9	Fe25	12.729	J4
Fe9	Fe27	12.729	J4
Fe9	Fe29	12.729	J4
Fe9	Fe25	12.729	J4
Fe9	Fe20	12.729	J4
Fe9	Fe28	12.729	J4
Fe9	Fe11	12.729	J4
Fe9	Fe29	12.729	J4
Fe9	Fe12	12.729	J4
Fe10	Fe20	12.729	J4
Fe10	Fe26	12.729	J4
Fe10	Fe28	12.729	J4
Fe10	Fe30	12.729	J4
Fe10	Fe26	12.729	J4
Fe10	Fe12	12.729	J4
Fe10	Fe19	12.729	J4
Fe10	Fe27	12.729	J4
Fe10	Fe30	12.729	J4
Fe10	Fe11	12.729	J4
Fe11	Fe27	12.729	J4
Fe11	Fe21	12.729	J4
Fe11	Fe29	12.729	J4
Fe11	Fe31	12.729	J4
Fe11	Fe22	12.729	J4
Fe11	Fe27	12.729	J4
Fe11	Fe30	12.729	J4
Fe11	Fe31	12.729	J4
Fe12	Fe28	12.729	J4
Fe12	Fe22	12.729	J4
Fe12	Fe30	12.729	J4
Fe12	Fe32	12.729	J4
Fe12	Fe28	12.729	J4
Fe12	Fe21	12.729	J4
Fe12	Fe29	12.729	J4
Fe12	Fe32	12.729	J4
Fe13	Fe23	12.729	J4
Fe13	Fe29	12.729	J4
Fe13	Fe15	12.729	J4
Fe13	Fe29	12.729	J4
Fe13	Fe16	12.729	J4
Fe13	Fe24	12.729	J4
Fe13	Fe25	12.729	J4
Fe13	Fe31	12.729	J4
Fe13	Fe25	12.729	J4
Fe13	Fe32	12.729	J4
Fe14	Fe24	12.729	J4
Fe14	Fe30	12.729	J4
Fe14	Fe16	12.729	J4
Fe14	Fe30	12.729	J4
Fe14	Fe15	12.729	J4
Fe14	Fe23	12.729	J4
Fe14	Fe26	12.729	J4
Fe14	Fe32	12.729	J4
Fe14	Fe26	12.729	J4
Fe14	Fe31	12.729	J4
Fe15	Fe17	12.729	J4
Fe15	Fe27	12.729	J4
Fe15	Fe18	12.729	J4
Fe15	Fe25	12.729	J4
Fe15	Fe31	12.729	J4
Fe15	Fe27	12.729	J4
Fe15	Fe26	12.729	J4
Fe15	Fe31	12.729	J4
Fe16	Fe18	12.729	J4
Fe16	Fe28	12.729	J4
Fe16	Fe26	12.729	J4
Fe16	Fe32	12.729	J4
Fe16	Fe17	12.729	J4
Fe16	Fe28	12.729	J4
Fe16	Fe25	12.729	J4
Fe16	Fe32	12.729	J4
Fe17	Fe28	12.729	J4
Fe17	Fe23	12.729	J4
Fe17	Fe24	12.729	J4
Fe17	Fe27	12.729	J4
Fe18	Fe24	12.729	J4
Fe18	Fe27	12.729	J4
Fe18	Fe28	12.729	J4
Fe18	Fe23	12.729	J4
Fe19	Fe25	12.729	J4
Fe19	Fe22	12.729	J4
Fe19	Fe26	12.729	J4
Fe19	Fe21	12.729	J4
Fe20	Fe26	12.729	J4
Fe20	Fe21	12.729	J4
Fe20	Fe25	12.729	J4
Fe20	Fe22	12.729	J4
Fe21	Fe32	12.729	J4
Fe21	Fe31	12.729	J4
Fe22	Fe31	12.729	J4
Fe22	Fe32	12.729	J4
Fe23	Fe29	12.729	J4
Fe23	Fe30	12.729	J4
Fe24	Fe30	12.729	J4
Fe24	Fe29	12.729	J4
Fe25	Fe32	12.729	J4
Fe25	Fe31	12.729	J4
Fe26	Fe31	12.729	J4
Fe26	Fe32	12.729	J4
Fe27	Fe29	12.729	J4
Fe27	Fe30	12.729	J4
Fe28	Fe30	12.729	J4
Fe28	Fe29	12.729	J4
Fe1	Fe23	15.061	J5
Fe1	Fe29	15.061	J5
Fe1	Fe30	15.061	J5
Fe1	Fe23	15.061	J5
Fe1	Fe7	15.061	J5
Fe1	Fe25	15.061	J5
Fe1	Fe26	15.061	J5
Fe1	Fe12	15.061	J5
Fe1	Fe32	15.061	J5
Fe1	Fe8	15.061	J5
Fe1	Fe24	15.061	J5
Fe1	Fe32	15.061	J5
Fe1	Fe11	15.061	J5
Fe1	Fe24	15.061	J5
Fe1	Fe29	15.061	J5
Fe1	Fe30	15.061	J5
Fe1	Fe7	15.061	J5
Fe1	Fe12	15.061	J5
Fe1	Fe8	15.061	J5
Fe1	Fe25	15.061	J5
Fe1	Fe26	15.061	J5
Fe1	Fe31	15.061	J5
Fe1	Fe11	15.061	J5
Fe1	Fe31	15.061	J5
Fe2	Fe24	15.061	J5
Fe2	Fe30	15.061	J5
Fe2	Fe29	15.061	J5
Fe2	Fe24	15.061	J5
Fe2	Fe8	15.061	J5
Fe2	Fe26	15.061	J5
Fe2	Fe25	15.061	J5
Fe2	Fe11	15.061	J5
Fe2	Fe31	15.061	J5
Fe2	Fe7	15.061	J5
Fe2	Fe23	15.061	J5
Fe2	Fe12	15.061	J5
Fe2	Fe30	15.061	J5
Fe2	Fe31	15.061	J5
Fe2	Fe23	15.061	J5
Fe2	Fe29	15.061	J5
Fe2	Fe8	15.061	J5
Fe2	Fe11	15.061	J5
Fe2	Fe26	15.061	J5
Fe2	Fe32	15.061	J5
Fe2	Fe7	15.061	J5
Fe2	Fe25	15.061	J5
Fe2	Fe12	15.061	J5
Fe2	Fe32	15.061	J5
Fe3	Fe17	15.061	J5
Fe3	Fe28	15.061	J5
Fe3	Fe17	15.061	J5
Fe3	Fe27	15.061	J5
Fe3	Fe18	15.061	J5
Fe3	Fe28	15.061	J5
Fe3	Fe9	15.061	J5
Fe3	Fe26	15.061	J5
Fe3	Fe27	15.061	J5
Fe3	Fe6	15.061	J5
Fe3	Fe18	15.061	J5
Fe3	Fe10	15.061	J5
Fe3	Fe26	15.061	J5
Fe3	Fe32	15.061	J5
Fe3	Fe5	15.061	J5
Fe3	Fe31	15.061	J5
Fe3	Fe9	15.061	J5
Fe3	Fe25	15.061	J5
Fe3	Fe6	15.061	J5
Fe3	Fe32	15.061	J5
Fe3	Fe10	15.061	J5
Fe3	Fe25	15.061	J5
Fe3	Fe31	15.061	J5
Fe3	Fe5	15.061	J5
Fe4	Fe18	15.061	J5
Fe4	Fe18	15.061	J5
Fe4	Fe27	15.061	J5
Fe4	Fe28	15.061	J5
Fe4	Fe10	15.061	J5
Fe4	Fe17	15.061	J5
Fe4	Fe27	15.061	J5
Fe4	Fe28	15.061	J5
Fe4	Fe25	15.061	J5
Fe4	Fe5	15.061	J5
Fe4	Fe17	15.061	J5
Fe4	Fe9	15.061	J5
Fe4	Fe25	15.061	J5
Fe4	Fe6	15.061	J5
Fe4	Fe31	15.061	J5
Fe4	Fe32	15.061	J5
Fe4	Fe10	15.061	J5
Fe4	Fe26	15.061	J5
Fe4	Fe5	15.061	J5
Fe4	Fe26	15.061	J5
Fe4	Fe31	15.061	J5
Fe4	Fe32	15.061	J5
Fe4	Fe9	15.061	J5
Fe4	Fe6	15.061	J5
Fe5	Fe16	15.061	J5
Fe5	Fe28	15.061	J5
Fe5	Fe19	15.061	J5
Fe5	Fe25	15.061	J5
Fe5	Fe26	15.061	J5
Fe5	Fe29	15.061	J5
Fe5	Fe30	15.061	J5
Fe5	Fe28	15.061	J5
Fe5	Fe15	15.061	J5
Fe5	Fe19	15.061	J5
Fe5	Fe16	15.061	J5
Fe5	Fe20	15.061	J5
Fe5	Fe27	15.061	J5
Fe5	Fe15	15.061	J5
Fe5	Fe20	15.061	J5
Fe5	Fe25	15.061	J5
Fe5	Fe26	15.061	J5
Fe5	Fe27	15.061	J5
Fe5	Fe29	15.061	J5
Fe5	Fe30	15.061	J5
Fe6	Fe15	15.061	J5
Fe6	Fe20	15.061	J5
Fe6	Fe26	15.061	J5
Fe6	Fe27	15.061	J5
Fe6	Fe30	15.061	J5
Fe6	Fe25	15.061	J5
Fe6	Fe29	15.061	J5
Fe6	Fe16	15.061	J5
Fe6	Fe20	15.061	J5
Fe6	Fe27	15.061	J5
Fe6	Fe15	15.061	J5
Fe6	Fe28	15.061	J5
Fe6	Fe19	15.061	J5
Fe6	Fe16	15.061	J5
Fe6	Fe26	15.061	J5
Fe6	Fe28	15.061	J5
Fe6	Fe30	15.061	J5
Fe6	Fe19	15.061	J5
Fe6	Fe25	15.061	J5
Fe6	Fe29	15.061	J5
Fe7	Fe13	15.061	J5
Fe7	Fe21	15.061	J5
Fe7	Fe30	15.061	J5
Fe7	Fe28	15.061	J5
Fe7	Fe32	15.061	J5
Fe7	Fe14	15.061	J5
Fe7	Fe21	15.061	J5
Fe7	Fe27	15.061	J5
Fe7	Fe30	15.061	J5
Fe7	Fe31	15.061	J5
Fe7	Fe22	15.061	J5
Fe7	Fe28	15.061	J5
Fe7	Fe32	15.061	J5
Fe7	Fe13	15.061	J5
Fe7	Fe27	15.061	J5
Fe7	Fe29	15.061	J5
Fe7	Fe31	15.061	J5
Fe7	Fe22	15.061	J5
Fe7	Fe14	15.061	J5
Fe7	Fe29	15.061	J5
Fe8	Fe14	15.061	J5
Fe8	Fe22	15.061	J5
Fe8	Fe29	15.061	J5
Fe8	Fe22	15.061	J5
Fe8	Fe27	15.061	J5
Fe8	Fe28	15.061	J5
Fe8	Fe31	15.061	J5
Fe8	Fe32	15.061	J5
Fe8	Fe13	15.061	J5
Fe8	Fe29	15.061	J5
Fe8	Fe14	15.061	J5
Fe8	Fe21	15.061	J5
Fe8	Fe27	15.061	J5
Fe8	Fe28	15.061	J5
Fe8	Fe30	15.061	J5
Fe8	Fe31	15.061	J5
Fe8	Fe32	15.061	J5
Fe8	Fe21	15.061	J5
Fe8	Fe30	15.061	J5
Fe8	Fe13	15.061	J5
Fe9	Fe16	15.061	J5
Fe9	Fe18	15.061	J5
Fe9	Fe17	15.061	J5
Fe9	Fe22	15.061	J5
Fe9	Fe24	15.061	J5
Fe9	Fe32	15.061	J5
Fe9	Fe15	15.061	J5
Fe9	Fe21	15.061	J5
Fe9	Fe24	15.061	J5
Fe9	Fe32	15.061	J5
Fe9	Fe16	15.061	J5
Fe9	Fe18	15.061	J5
Fe9	Fe15	15.061	J5
Fe9	Fe17	15.061	J5
Fe9	Fe23	15.061	J5
Fe9	Fe31	15.061	J5
Fe9	Fe22	15.061	J5
Fe9	Fe21	15.061	J5
Fe9	Fe23	15.061	J5
Fe9	Fe31	15.061	J5
Fe10	Fe15	15.061	J5
Fe10	Fe17	15.061	J5
Fe10	Fe18	15.061	J5
Fe10	Fe16	15.061	J5
Fe10	Fe21	15.061	J5
Fe10	Fe22	15.061	J5
Fe10	Fe23	15.061	J5
Fe10	Fe31	15.061	J5
Fe10	Fe23	15.061	J5
Fe10	Fe31	15.061	J5
Fe10	Fe15	15.061	J5
Fe10	Fe16	15.061	J5
Fe10	Fe17	15.061	J5
Fe10	Fe18	15.061	J5
Fe10	Fe24	15.061	J5
Fe10	Fe32	15.061	J5
Fe10	Fe21	15.061	J5
Fe10	Fe22	15.061	J5
Fe10	Fe24	15.061	J5
Fe10	Fe32	15.061	J5
Fe11	Fe18	15.061	J5
Fe11	Fe26	15.061	J5
Fe11	Fe13	15.061	J5
Fe11	Fe18	15.061	J5
Fe11	Fe19	15.061	J5
Fe11	Fe20	15.061	J5
Fe11	Fe26	15.061	J5
Fe11	Fe14	15.061	J5
Fe11	Fe23	15.061	J5
Fe11	Fe24	15.061	J5
Fe11	Fe17	15.061	J5
Fe11	Fe19	15.061	J5
Fe11	Fe20	15.061	J5
Fe11	Fe25	15.061	J5
Fe11	Fe13	15.061	J5
Fe11	Fe17	15.061	J5
Fe11	Fe23	15.061	J5
Fe11	Fe24	15.061	J5
Fe11	Fe25	15.061	J5
Fe11	Fe14	15.061	J5
Fe12	Fe17	15.061	J5
Fe12	Fe25	15.061	J5
Fe12	Fe14	15.061	J5
Fe12	Fe20	15.061	J5
Fe12	Fe17	15.061	J5
Fe12	Fe19	15.061	J5
Fe12	Fe25	15.061	J5
Fe12	Fe24	15.061	J5
Fe12	Fe13	15.061	J5
Fe12	Fe23	15.061	J5
Fe12	Fe18	15.061	J5
Fe12	Fe20	15.061	J5
Fe12	Fe26	15.061	J5
Fe12	Fe19	15.061	J5
Fe12	Fe14	15.061	J5
Fe12	Fe18	15.061	J5
Fe12	Fe24	15.061	J5
Fe12	Fe26	15.061	J5
Fe12	Fe23	15.061	J5
Fe12	Fe13	15.061	J5
Fe13	Fe18	15.061	J5
Fe13	Fe28	15.061	J5
Fe13	Fe17	15.061	J5
Fe13	Fe28	15.061	J5
Fe13	Fe20	15.061	J5
Fe13	Fe22	15.061	J5
Fe13	Fe21	15.061	J5
Fe13	Fe27	15.061	J5
Fe13	Fe18	15.061	J5
Fe13	Fe20	15.061	J5
Fe13	Fe17	15.061	J5
Fe13	Fe27	15.061	J5
Fe13	Fe19	15.061	J5
Fe13	Fe22	15.061	J5
Fe13	Fe19	15.061	J5
Fe13	Fe21	15.061	J5
Fe14	Fe17	15.061	J5
Fe14	Fe18	15.061	J5
Fe14	Fe27	15.061	J5
Fe14	Fe27	15.061	J5
Fe14	Fe19	15.061	J5
Fe14	Fe21	15.061	J5
Fe14	Fe22	15.061	J5
Fe14	Fe28	15.061	J5
Fe14	Fe17	15.061	J5
Fe14	Fe18	15.061	J5
Fe14	Fe19	15.061	J5
Fe14	Fe28	15.061	J5
Fe14	Fe20	15.061	J5
Fe14	Fe20	15.061	J5
Fe14	Fe21	15.061	J5
Fe14	Fe22	15.061	J5
Fe15	Fe30	15.061	J5
Fe15	Fe23	15.061	J5
Fe15	Fe24	15.061	J5
Fe15	Fe30	15.061	J5
Fe15	Fe22	15.061	J5
Fe15	Fe23	15.061	J5
Fe15	Fe24	15.061	J5
Fe15	Fe29	15.061	J5
Fe15	Fe19	15.061	J5
Fe15	Fe20	15.061	J5
Fe15	Fe22	15.061	J5
Fe15	Fe29	15.061	J5
Fe15	Fe19	15.061	J5
Fe15	Fe20	15.061	J5
Fe15	Fe21	15.061	J5
Fe15	Fe21	15.061	J5
Fe16	Fe29	15.061	J5
Fe16	Fe24	15.061	J5
Fe16	Fe23	15.061	J5
Fe16	Fe29	15.061	J5
Fe16	Fe24	15.061	J5
Fe16	Fe30	15.061	J5
Fe16	Fe21	15.061	J5
Fe16	Fe23	15.061	J5
Fe16	Fe20	15.061	J5
Fe16	Fe30	15.061	J5
Fe16	Fe19	15.061	J5
Fe16	Fe21	15.061	J5
Fe16	Fe20	15.061	J5
Fe16	Fe22	15.061	J5
Fe16	Fe19	15.061	J5
Fe16	Fe22	15.061	J5
Fe17	Fe20	15.061	J5
Fe17	Fe31	15.061	J5
Fe17	Fe32	15.061	J5
Fe17	Fe19	15.061	J5
Fe17	Fe20	15.061	J5
Fe17	Fe31	15.061	J5
Fe17	Fe32	15.061	J5
Fe17	Fe19	15.061	J5
Fe18	Fe32	15.061	J5
Fe18	Fe19	15.061	J5
Fe18	Fe20	15.061	J5
Fe18	Fe31	15.061	J5
Fe18	Fe32	15.061	J5
Fe18	Fe19	15.061	J5
Fe18	Fe20	15.061	J5
Fe18	Fe31	15.061	J5
Fe19	Fe30	15.061	J5
Fe19	Fe29	15.061	J5
Fe19	Fe30	15.061	J5
Fe19	Fe29	15.061	J5
Fe20	Fe29	15.061	J5
Fe20	Fe30	15.061	J5
Fe20	Fe29	15.061	J5
Fe20	Fe30	15.061	J5
Fe21	Fe27	15.061	J5
Fe21	Fe28	15.061	J5
Fe21	Fe24	15.061	J5
Fe21	Fe23	15.061	J5
Fe21	Fe27	15.061	J5
Fe21	Fe28	15.061	J5
Fe21	Fe24	15.061	J5
Fe21	Fe23	15.061	J5
Fe22	Fe28	15.061	J5
Fe22	Fe27	15.061	J5
Fe22	Fe23	15.061	J5
Fe22	Fe24	15.061	J5
Fe22	Fe28	15.061	J5
Fe22	Fe27	15.061	J5
Fe22	Fe23	15.061	J5
Fe22	Fe24	15.061	J5
Fe23	Fe26	15.061	J5
Fe23	Fe25	15.061	J5
Fe23	Fe26	15.061	J5
Fe23	Fe25	15.061	J5
Fe24	Fe25	15.061	J5
Fe24	Fe26	15.061	J5
Fe24	Fe25	15.061	J5
Fe24	Fe26	15.061	J5
Fe25	Fe27	15.061	J5
Fe25	Fe28	15.061	J5
Fe25	Fe27	15.061	J5
Fe25	Fe28	15.061	J5
Fe26	Fe28	15.061	J5
Fe26	Fe27	15.061	J5
Fe26	Fe28	15.061	J5
Fe26	Fe27	15.061	J5
Fe29	Fe31	15.061	J5
Fe29	Fe32	15.061	J5
Fe29	Fe31	15.061	J5
Fe29	Fe32	15.061	J5
Fe30	Fe32	15.061	J5
Fe30	Fe31	15.061	J5
Fe30	Fe32	15.061	J5
Fe30	Fe31	15.061	J5
   
