
#======================================================================
            
# CRYSTAL DATA

#----------------------------------------------------------------------

data_magnetic_model_1
            
_chemical_name_common                  default
_cell_length_a 			10.0
_cell_length_b 			10.0
_cell_length_c 			28.0
_cell_angle_alpha 			90.0
_cell_angle_beta 			90.0
_cell_angle_gamma 			120.0

loop_
 _space_group_symop_operation_xyz			
'x, y, z'

# Atom positions 

loop_
   _atom_site_label
_atom_site_occupancy
_atom_site_fract_x
_atom_site_fract_y
_atom_site_fract_z
_atom_site_adp_type
_atom_site_B_iso_or_equiv
_atom_site_type_symbol
Mn1	 1.	-0.0	0.0	0.32	Biso 	1 	Mn 
Mn2	 1.	0.5	0.0	0.32	Biso 	1 	Mn 
Mn3	 1.	0.0	0.5	0.32	Biso 	1 	Mn 
Mn4	 1.	0.5	0.5	0.32	Biso 	1 	Mn 
Mn5	 1.	0.33333	0.16667	0.32	Biso 	1 	Mn 
Mn6	 1.	0.83333	0.16667	0.32	Biso 	1 	Mn 
Mn7	 1.	0.33333	0.66667	0.32	Biso 	1 	Mn 
Mn8	 1.	0.83333	0.66667	0.32	Biso 	1 	Mn 
Mn9	 1.	0.0	0.0	0.68	Biso 	1 	Mn 
Mn10	 1.	0.5	0.0	0.68	Biso 	1 	Mn 
Mn11	 1.	-0.0	0.5	0.68	Biso 	1 	Mn 
Mn12	 1.	0.5	0.5	0.68	Biso 	1 	Mn 
Mn13	 1.	0.33333	0.16667	0.68	Biso 	1 	Mn 
Mn14	 1.	0.83333	0.16667	0.68	Biso 	1 	Mn 
Mn15	 1.	0.33333	0.66667	0.68	Biso 	1 	Mn 
Mn16	 1.	0.83333	0.66667	0.68	Biso 	1 	Mn 
   
# Bonds  
loop_
_geom_bond_atom_site_label_1
_geom_bond_atom_site_label_2
_geom_bond_distance
_geom_bond_label
Mn1	Mn8	2.9	J1
Mn1	Mn6	2.9	J1
Mn1	Mn5	2.9	J1
Mn2	Mn7	2.9	J1
Mn2	Mn5	2.9	J1
Mn2	Mn6	2.9	J1
Mn3	Mn6	2.9	J1
Mn3	Mn8	2.9	J1
Mn3	Mn7	2.9	J1
Mn4	Mn5	2.9	J1
Mn4	Mn7	2.9	J1
Mn4	Mn8	2.9	J1
Mn9	Mn16	2.9	J1
Mn9	Mn14	2.9	J1
Mn9	Mn13	2.9	J1
Mn10	Mn15	2.9	J1
Mn10	Mn13	2.9	J1
Mn10	Mn14	2.9	J1
Mn11	Mn14	2.9	J1
Mn11	Mn16	2.9	J1
Mn11	Mn15	2.9	J1
Mn12	Mn13	2.9	J1
Mn12	Mn15	2.9	J1
Mn12	Mn16	2.9	J1
Mn1	Mn4	5.0	J2
Mn1	Mn2	5.0	J2
Mn1	Mn3	5.0	J2
Mn1	Mn2	5.0	J2
Mn1	Mn3	5.0	J2
Mn1	Mn4	5.0	J2
Mn2	Mn3	5.0	J2
Mn2	Mn4	5.0	J2
Mn2	Mn4	5.0	J2
Mn2	Mn3	5.0	J2
Mn3	Mn4	5.0	J2
Mn3	Mn4	5.0	J2
Mn5	Mn8	5.0	J2
Mn5	Mn6	5.0	J2
Mn5	Mn7	5.0	J2
Mn5	Mn6	5.0	J2
Mn5	Mn7	5.0	J2
Mn5	Mn8	5.0	J2
Mn6	Mn7	5.0	J2
Mn6	Mn8	5.0	J2
Mn6	Mn8	5.0	J2
Mn6	Mn7	5.0	J2
Mn7	Mn8	5.0	J2
Mn7	Mn8	5.0	J2
Mn9	Mn12	5.0	J2
Mn9	Mn10	5.0	J2
Mn9	Mn11	5.0	J2
Mn9	Mn10	5.0	J2
Mn9	Mn11	5.0	J2
Mn9	Mn12	5.0	J2
Mn10	Mn11	5.0	J2
Mn10	Mn12	5.0	J2
Mn10	Mn12	5.0	J2
Mn10	Mn11	5.0	J2
Mn11	Mn12	5.0	J2
Mn11	Mn12	5.0	J2
Mn13	Mn16	5.0	J2
Mn13	Mn14	5.0	J2
Mn13	Mn15	5.0	J2
Mn13	Mn14	5.0	J2
Mn13	Mn15	5.0	J2
Mn13	Mn16	5.0	J2
Mn14	Mn15	5.0	J2
Mn14	Mn16	5.0	J2
Mn14	Mn16	5.0	J2
Mn14	Mn15	5.0	J2
Mn15	Mn16	5.0	J2
Mn15	Mn16	5.0	J2
Mn1	Mn7	5.8	J3
Mn1	Mn7	5.8	J3
Mn1	Mn7	5.8	J3
Mn2	Mn8	5.8	J3
Mn2	Mn8	5.8	J3
Mn2	Mn8	5.8	J3
Mn3	Mn5	5.8	J3
Mn3	Mn5	5.8	J3
Mn3	Mn5	5.8	J3
Mn4	Mn6	5.8	J3
Mn4	Mn6	5.8	J3
Mn4	Mn6	5.8	J3
Mn9	Mn15	5.8	J3
Mn9	Mn15	5.8	J3
Mn9	Mn15	5.8	J3
Mn10	Mn16	5.8	J3
Mn10	Mn16	5.8	J3
Mn10	Mn16	5.8	J3
Mn11	Mn13	5.8	J3
Mn11	Mn13	5.8	J3
Mn11	Mn13	5.8	J3
Mn12	Mn14	5.8	J3
Mn12	Mn14	5.8	J3
Mn12	Mn14	5.8	J3
   
